#

@<TRIPOS>MOLECULE
DED000014
 6 5 0 0 0
SMALL
GASTEIGER

@<TRIPOS>ATOM
      1 O           0.7079    0.0000    0.0000 O.3       1 LIG        -0.3982
      2 C          -0.7079    0.0000    0.0000 C.3       1 LIG         0.0330
      3 H          -1.0732   -0.7690    0.6852 H         1 LIG         0.0521
      4 H1         -1.0731   -0.1947   -1.0113 H         1 LIG         0.0521
      5 H2         -1.0632    0.9786    0.3312 H         1 LIG         0.0521
      6 H3          0.9936   -0.8804   -0.2980 H         1 LIG         0.2090
@<TRIPOS>BOND
     1    1    2 1  
     2    1    6 1  
     3    2    3 1  
     4    2    4 1  
     5    2    5 1  
